<?xml version="1.0" encoding="UTF-8"?>

<!-- generated on 2024-09-09 10:52:22 by Eclipse SUMO netedit Version 1.20.0
<configuration xmlns:xsi="http://www.w3.org/2001/XMLSchema-instance" xsi:noNamespaceSchemaLocation="http://sumo.dlr.de/xsd/neteditConfiguration.xsd">

    <input>
        <sumocfg-file value="/home/ahoop004/SRL/data/balt/Nets/osm.sumocfg"/>
        <additional-files value="/home/ahoop004/SRL/data/balt/Nets/parking_parkingLot.add.xml"/>
        <route-files value="/home/ahoop004/SRL/data/balt/Nets/osm_pt.rou.xml"/>
        <sumo-net-file value="/home/ahoop004/SRL/data/balt/Nets/osm.net.xml"/>
    </input>

    <output>
        <output-file value="/home/ahoop004/SRL/data/balt/Nets/osm.net.xml"/>
        <output.street-names value="true"/>
    </output>

    <processing>
        <geometry.min-radius.fix.railways value="false"/>
        <geometry.max-grade.fix value="false"/>
        <offset.disable-normalization value="true"/>
        <lefthand value="0"/>
    </processing>

    <junctions>
        <no-internal-links value="false"/>
        <no-turnarounds value="true"/>
        <junctions.corner-detail value="5"/>
        <junctions.limit-turn-speed value="5.50"/>
        <rectangular-lane-cut value="0"/>
    </junctions>

    <pedestrian>
        <walkingareas value="0"/>
    </pedestrian>

</configuration>
-->

<net version="1.20" junctionCornerDetail="5" limitTurnSpeed="5.50" xmlns:xsi="http://www.w3.org/2001/XMLSchema-instance" xsi:noNamespaceSchemaLocation="http://sumo.dlr.de/xsd/net_file.xsd">

    <location netOffset="-363361.41,-4348703.41" convBoundary="673.94,513.24,1608.08,1051.02" origBoundary="-76.584320,39.277133,-76.562162,39.290085" projParameter="+proj=utm +zone=18 +ellps=WGS84 +datum=WGS84 +units=m +no_defs"/>

    <type id="highway.primary" priority="12" numLanes="2" speed="27.78" disallow="tram rail_urban rail rail_electric rail_fast ship" oneway="0"/>
    <type id="highway.residential" priority="3" numLanes="1" speed="13.89" disallow="tram rail_urban rail rail_electric rail_fast ship" oneway="0"/>
    <type id="highway.tertiary" priority="10" numLanes="1" speed="22.22" disallow="tram rail_urban rail rail_electric rail_fast ship" oneway="0"/>

    <edge id=":3292949046_0" function="internal">
        <lane id=":3292949046_0_0" index="0" disallow="tram rail_urban rail rail_electric rail_fast ship cable_car subway" speed="3.65" length="4.67" shape="1336.83,513.19 1337.67,512.01 1338.48,511.64 1339.27,512.07 1340.03,513.29"/>
    </edge>
    <edge id=":3292949048_0" function="internal">
        <lane id=":3292949048_0_0" index="0" disallow="tram rail_urban rail rail_electric rail_fast ship cable_car subway" speed="3.65" length="4.67" shape="1416.01,516.44 1416.85,515.26 1417.66,514.89 1418.45,515.32 1419.21,516.54"/>
    </edge>
    <edge id=":3292949049_0" function="internal">
        <lane id=":3292949049_0_0" index="0" disallow="tram rail_urban rail rail_electric rail_fast ship cable_car subway" speed="3.65" length="4.67" shape="1496.77,526.33 1497.60,525.15 1498.41,524.77 1499.20,525.19 1499.97,526.41"/>
    </edge>
    <edge id=":3292949057_0" function="internal">
        <lane id=":3292949057_0_0" index="0" disallow="tram rail_urban rail rail_electric rail_fast ship cable_car subway" speed="3.65" length="4.67" shape="1577.97,545.40 1578.81,544.22 1579.62,543.85 1580.41,544.28 1581.17,545.50"/>
    </edge>
    <edge id=":49429407_0" function="internal">
        <lane id=":49429407_0_0" index="0" disallow="tram rail_urban rail rail_electric rail_fast ship cable_car subway" speed="5.37" length="5.81" shape="1329.91,937.58 1328.33,937.76 1327.18,938.40 1326.47,939.50 1326.20,941.07"/>
    </edge>
    <edge id=":49429407_1" function="internal">
        <lane id=":49429407_1_0" index="0" disallow="tram rail_urban rail rail_electric rail_fast ship cable_car subway" speed="11.18" length="10.42" shape="1329.91,937.58 1319.50,937.25"/>
        <lane id=":49429407_1_1" index="1" disallow="tram rail_urban rail rail_electric rail_fast ship cable_car subway" speed="11.18" length="10.42" shape="1330.01,934.38 1319.60,934.05"/>
    </edge>
    <edge id=":49429407_3" function="internal">
        <lane id=":49429407_3_0" index="0" disallow="tram rail_urban rail rail_electric rail_fast ship cable_car subway" speed="8.31" length="2.87" shape="1330.01,934.38 1327.26,933.60"/>
    </edge>
    <edge id=":49429407_4" function="internal">
        <lane id=":49429407_4_0" index="0" disallow="pedestrian tram rail_urban rail rail_electric rail_fast ship cable_car subway" speed="3.65" length="1.44" shape="1330.01,934.38 1328.84,933.55"/>
    </edge>
    <edge id=":49429407_18" function="internal">
        <lane id=":49429407_18_0" index="0" disallow="tram rail_urban rail rail_electric rail_fast ship cable_car subway" speed="8.31" length="12.53" shape="1327.26,933.60 1327.06,933.54 1325.00,931.22 1323.85,927.43 1323.58,922.17"/>
    </edge>
    <edge id=":49429407_19" function="internal">
        <lane id=":49429407_19_0" index="0" disallow="pedestrian tram rail_urban rail rail_electric rail_fast ship cable_car subway" speed="3.65" length="3.23" shape="1328.84,933.55 1328.46,932.73 1328.89,931.95 1330.11,931.18"/>
    </edge>
    <edge id=":49429407_5" function="internal">
        <lane id=":49429407_5_0" index="0" disallow="pedestrian tram rail_urban rail rail_electric rail_fast ship cable_car subway" speed="5.99" length="7.50" shape="1326.78,922.27 1326.93,924.73 1327.55,926.50 1328.65,927.59 1330.21,927.99"/>
    </edge>
    <edge id=":49429407_6" function="internal">
        <lane id=":49429407_6_0" index="0" disallow="tram rail_urban rail rail_electric rail_fast ship cable_car subway" speed="11.18" length="18.81" shape="1326.78,922.27 1326.20,941.07"/>
    </edge>
    <edge id=":49429407_7" function="internal">
        <lane id=":49429407_7_0" index="0" disallow="tram rail_urban rail rail_electric rail_fast ship cable_car subway" speed="8.31" length="6.04" shape="1326.78,922.27 1326.19,927.51 1325.92,928.23"/>
    </edge>
    <edge id=":49429407_8" function="internal">
        <lane id=":49429407_8_0" index="0" disallow="tram rail_urban rail rail_electric rail_fast ship cable_car subway" speed="3.65" length="1.44" shape="1326.78,922.27 1325.95,923.45"/>
    </edge>
    <edge id=":49429407_20" function="internal">
        <lane id=":49429407_20_0" index="0" disallow="tram rail_urban rail rail_electric rail_fast ship cable_car subway" speed="8.31" length="9.36" shape="1325.92,928.23 1324.80,931.22 1322.60,933.40 1319.60,934.05"/>
    </edge>
    <edge id=":49429407_21" function="internal">
        <lane id=":49429407_21_0" index="0" disallow="tram rail_urban rail rail_electric rail_fast ship cable_car subway" speed="3.65" length="3.23" shape="1325.95,923.45 1325.13,923.82 1324.35,923.40 1323.58,922.17"/>
    </edge>
    <edge id=":49429407_9" function="internal">
        <lane id=":49429407_9_0" index="0" disallow="pedestrian tram rail_urban rail rail_electric rail_fast ship cable_car subway" speed="5.99" length="7.49" shape="1319.81,927.65 1321.39,927.35 1322.55,926.34 1323.28,924.61 1323.58,922.17"/>
    </edge>
    <edge id=":49429407_10" function="internal">
        <lane id=":49429407_10_0" index="0" disallow="pedestrian tram rail_urban rail rail_electric rail_fast ship cable_car subway" speed="11.18" length="10.41" shape="1319.81,927.65 1330.21,927.99"/>
        <lane id=":49429407_10_1" index="1" disallow="pedestrian tram rail_urban rail rail_electric rail_fast ship cable_car subway" speed="11.18" length="10.41" shape="1319.70,930.85 1330.11,931.18"/>
    </edge>
    <edge id=":49429407_12" function="internal">
        <lane id=":49429407_12_0" index="0" disallow="pedestrian tram rail_urban rail rail_electric rail_fast ship cable_car subway" speed="7.86" length="3.04" shape="1319.70,930.85 1322.66,931.57"/>
    </edge>
    <edge id=":49429407_13" function="internal">
        <lane id=":49429407_13_0" index="0" disallow="pedestrian tram rail_urban rail rail_electric rail_fast ship cable_car subway" speed="3.65" length="1.44" shape="1319.70,930.85 1320.88,931.69"/>
    </edge>
    <edge id=":49429407_22" function="internal">
        <lane id=":49429407_22_0" index="0" disallow="pedestrian tram rail_urban rail rail_electric rail_fast ship cable_car subway" speed="7.86" length="10.61" shape="1322.66,931.57 1324.73,933.52 1325.91,936.68 1326.20,941.07"/>
    </edge>
    <edge id=":49429407_23" function="internal">
        <lane id=":49429407_23_0" index="0" disallow="pedestrian tram rail_urban rail rail_electric rail_fast ship cable_car subway" speed="3.65" length="3.23" shape="1320.88,931.69 1321.25,932.50 1320.83,933.29 1319.60,934.05"/>
    </edge>
    <edge id=":49429407_14" function="internal">
        <lane id=":49429407_14_0" index="0" disallow="tram rail_urban rail rail_electric rail_fast ship cable_car subway" speed="5.38" length="5.83" shape="1323.00,940.97 1322.82,939.38 1322.18,938.24 1321.07,937.53 1319.50,937.25"/>
    </edge>
    <edge id=":49429407_15" function="internal">
        <lane id=":49429407_15_0" index="0" disallow="tram rail_urban rail rail_electric rail_fast ship cable_car subway" speed="11.18" length="18.81" shape="1323.00,940.97 1323.58,922.17"/>
    </edge>
    <edge id=":49429407_16" function="internal">
        <lane id=":49429407_16_0" index="0" disallow="pedestrian tram rail_urban rail rail_electric rail_fast ship cable_car subway" speed="7.86" length="5.04" shape="1323.00,940.97 1323.56,936.61 1323.82,936.02"/>
    </edge>
    <edge id=":49429407_17" function="internal">
        <lane id=":49429407_17_0" index="0" disallow="tram rail_urban rail rail_electric rail_fast ship cable_car subway" speed="3.65" length="1.44" shape="1323.00,940.97 1323.84,939.79"/>
    </edge>
    <edge id=":49429407_24" function="internal">
        <lane id=":49429407_24_0" index="0" disallow="pedestrian tram rail_urban rail rail_electric rail_fast ship cable_car subway" speed="7.86" length="8.61" shape="1323.82,936.02 1324.93,933.52 1327.12,931.72 1330.11,931.18"/>
    </edge>
    <edge id=":49429407_25" function="internal">
        <lane id=":49429407_25_0" index="0" disallow="tram rail_urban rail rail_electric rail_fast ship cable_car subway" speed="3.65" length="3.23" shape="1323.84,939.79 1324.65,939.42 1325.44,939.84 1326.20,941.07"/>
    </edge>
    <edge id=":49429407_w0" function="walkingarea">
        <lane id=":49429407_w0_0" index="0" allow="pedestrian" speed="2.78" length="6.54" width="3.20" shape="1319.65,932.45 1319.55,935.65 1319.44,938.85 1321.40,940.92 1324.60,941.02 1327.80,941.12 1329.86,939.18 1329.96,935.98 1330.06,932.78"/>
    </edge>
    <edge id=":49429407_w1" function="walkingarea">
        <lane id=":49429407_w1_0" index="0" allow="pedestrian" speed="2.78" length="6.31" width="3.20" shape="1330.26,926.39 1330.33,924.39 1328.38,922.32 1325.18,922.22 1321.99,922.12 1319.92,924.06 1319.86,926.05"/>
    </edge>
    <edge id=":49429412_0" function="internal">
        <lane id=":49429412_0_0" index="0" disallow="pedestrian tram rail_urban rail rail_electric rail_fast ship cable_car subway" speed="5.99" length="7.50" shape="1330.15,814.11 1330.30,816.57 1330.92,818.34 1332.01,819.43 1333.58,819.83"/>
    </edge>
    <edge id=":49429412_1" function="internal">
        <lane id=":49429412_1_0" index="0" disallow="tram rail_urban rail rail_electric rail_fast ship cable_car subway" speed="11.18" length="9.21" shape="1330.15,814.11 1329.87,823.31"/>
    </edge>
    <edge id=":49429412_2" function="internal">
        <lane id=":49429412_2_0" index="0" disallow="tram rail_urban rail rail_electric rail_fast ship cable_car subway" speed="3.65" length="1.44" shape="1330.15,814.11 1329.31,815.28"/>
    </edge>
    <edge id=":49429412_9" function="internal">
        <lane id=":49429412_9_0" index="0" disallow="tram rail_urban rail rail_electric rail_fast ship cable_car subway" speed="3.65" length="3.23" shape="1329.31,815.28 1328.50,815.66 1327.72,815.23 1326.95,814.01"/>
    </edge>
    <edge id=":49429412_3" function="internal">
        <lane id=":49429412_3_0" index="0" disallow="pedestrian tram rail_urban rail rail_electric rail_fast ship cable_car subway" speed="5.99" length="7.49" shape="1323.18,819.49 1324.76,819.19 1325.92,818.18 1326.65,816.45 1326.95,814.01"/>
    </edge>
    <edge id=":49429412_4" function="internal">
        <lane id=":49429412_4_0" index="0" disallow="pedestrian tram rail_urban rail rail_electric rail_fast ship cable_car subway" speed="11.18" length="10.41" shape="1323.18,819.49 1333.58,819.83"/>
    </edge>
    <edge id=":49429412_5" function="internal">
        <lane id=":49429412_5_0" index="0" disallow="pedestrian tram rail_urban rail rail_electric rail_fast ship cable_car subway" speed="6.35" length="8.55" shape="1323.18,819.49 1326.15,819.81 1328.25,820.56 1329.49,821.72 1329.87,823.31"/>
    </edge>
    <edge id=":49429412_6" function="internal">
        <lane id=":49429412_6_0" index="0" disallow="tram rail_urban rail rail_electric rail_fast ship cable_car subway" speed="11.18" length="9.21" shape="1326.67,823.21 1326.95,814.01"/>
    </edge>
    <edge id=":49429412_7" function="internal">
        <lane id=":49429412_7_0" index="0" disallow="pedestrian tram rail_urban rail rail_electric rail_fast ship cable_car subway" speed="6.35" length="1.86" shape="1326.67,823.21 1327.14,821.65 1327.32,821.50"/>
    </edge>
    <edge id=":49429412_8" function="internal">
        <lane id=":49429412_8_0" index="0" disallow="tram rail_urban rail rail_electric rail_fast ship cable_car subway" speed="3.65" length="1.44" shape="1326.67,823.21 1327.50,822.04"/>
    </edge>
    <edge id=":49429412_10" function="internal">
        <lane id=":49429412_10_0" index="0" disallow="pedestrian tram rail_urban rail rail_electric rail_fast ship cable_car subway" speed="6.35" length="6.68" shape="1327.32,821.50 1328.45,820.56 1330.60,819.96 1333.58,819.83"/>
    </edge>
    <edge id=":49429412_11" function="internal">
        <lane id=":49429412_11_0" index="0" disallow="tram rail_urban rail rail_electric rail_fast ship cable_car subway" speed="3.65" length="3.23" shape="1327.50,822.04 1328.32,821.66 1329.10,822.09 1329.87,823.31"/>
    </edge>
    <edge id=":49429412_w0" function="walkingarea">
        <lane id=":49429412_w0_0" index="0" allow="pedestrian" speed="2.78" length="6.31" width="3.20" shape="1333.63,818.23 1333.69,816.23 1331.75,814.16 1328.55,814.06 1325.35,813.96 1323.29,815.89 1323.23,817.89"/>
    </edge>
    <edge id=":49429412_w1" function="walkingarea">
        <lane id=":49429412_w1_0" index="0" allow="pedestrian" speed="2.78" length="3.20" width="3.20" shape="1325.07,823.16 1328.27,823.26 1331.47,823.36"/>
    </edge>
    <edge id=":49429414_0" function="internal">
        <lane id=":49429414_0_0" index="0" disallow="pedestrian tram rail_urban rail rail_electric rail_fast ship cable_car subway" speed="5.99" length="7.49" shape="1337.12,705.78 1335.53,706.08 1334.37,707.09 1333.64,708.82 1333.34,711.26"/>
    </edge>
    <edge id=":49429414_1" function="internal">
        <lane id=":49429414_1_0" index="0" disallow="pedestrian tram rail_urban rail rail_electric rail_fast ship cable_car subway" speed="11.18" length="10.42" shape="1337.12,705.78 1326.70,705.37"/>
    </edge>
    <edge id=":49429414_2" function="internal">
        <lane id=":49429414_2_0" index="0" disallow="pedestrian tram rail_urban rail rail_electric rail_fast ship cable_car subway" speed="6.35" length="8.57" shape="1337.12,705.78 1334.15,705.46 1332.05,704.70 1330.81,703.53 1330.44,701.92"/>
    </edge>
    <edge id=":49429414_3" function="internal">
        <lane id=":49429414_3_0" index="0" disallow="tram rail_urban rail rail_electric rail_fast ship cable_car subway" speed="11.18" length="9.24" shape="1333.64,702.03 1333.34,711.26"/>
    </edge>
    <edge id=":49429414_4" function="internal">
        <lane id=":49429414_4_0" index="0" disallow="pedestrian tram rail_urban rail rail_electric rail_fast ship cable_car subway" speed="6.33" length="1.87" shape="1333.64,702.03 1333.16,703.61 1332.99,703.75"/>
    </edge>
    <edge id=":49429414_5" function="internal">
        <lane id=":49429414_5_0" index="0" disallow="tram rail_urban rail rail_electric rail_fast ship cable_car subway" speed="3.65" length="1.44" shape="1333.64,702.03 1332.80,703.20"/>
    </edge>
    <edge id=":49429414_9" function="internal">
        <lane id=":49429414_9_0" index="0" disallow="pedestrian tram rail_urban rail rail_electric rail_fast ship cable_car subway" speed="6.33" length="6.70" shape="1332.99,703.75 1331.84,704.69 1329.69,705.28 1326.70,705.37"/>
    </edge>
    <edge id=":49429414_10" function="internal">
        <lane id=":49429414_10_0" index="0" disallow="tram rail_urban rail rail_electric rail_fast ship cable_car subway" speed="3.65" length="3.23" shape="1332.80,703.20 1331.99,703.58 1331.20,703.15 1330.44,701.92"/>
    </edge>
    <edge id=":49429414_6" function="internal">
        <lane id=":49429414_6_0" index="0" disallow="pedestrian tram rail_urban rail rail_electric rail_fast ship cable_car subway" speed="6.04" length="7.55" shape="1330.14,711.16 1329.99,708.69 1329.37,706.90 1328.27,705.79 1326.70,705.37"/>
    </edge>
    <edge id=":49429414_7" function="internal">
        <lane id=":49429414_7_0" index="0" disallow="tram rail_urban rail rail_electric rail_fast ship cable_car subway" speed="11.18" length="9.25" shape="1330.14,711.16 1330.44,701.92"/>
    </edge>
    <edge id=":49429414_8" function="internal">
        <lane id=":49429414_8_0" index="0" disallow="tram rail_urban rail rail_electric rail_fast ship cable_car subway" speed="3.65" length="1.44" shape="1330.14,711.16 1330.97,709.99"/>
    </edge>
    <edge id=":49429414_11" function="internal">
        <lane id=":49429414_11_0" index="0" disallow="tram rail_urban rail rail_electric rail_fast ship cable_car subway" speed="3.65" length="3.23" shape="1330.97,709.99 1331.79,709.61 1332.57,710.04 1333.34,711.26"/>
    </edge>
    <edge id=":49429414_w0" function="walkingarea">
        <lane id=":49429414_w0_0" index="0" allow="pedestrian" speed="2.78" length="6.35" width="3.20" shape="1326.63,706.97 1326.54,708.96 1328.54,711.11 1331.74,711.21 1334.94,711.31 1337.00,709.38 1337.06,707.38"/>
    </edge>
    <edge id=":49429414_w1" function="walkingarea">
        <lane id=":49429414_w1_0" index="0" allow="pedestrian" speed="2.78" length="3.20" width="3.20" shape="1335.24,702.09 1332.04,701.98 1328.84,701.86"/>
    </edge>
    <edge id=":49429417_0" function="internal">
        <lane id=":49429417_0_0" index="0" disallow="pedestrian tram rail_urban rail rail_electric rail_fast ship cable_car subway" speed="7.10" length="10.81" shape="1343.02,596.75 1340.53,597.18 1338.70,598.58 1337.56,600.94 1337.08,604.26"/>
    </edge>
    <edge id=":49429417_1" function="internal">
        <lane id=":49429417_1_0" index="0" disallow="pedestrian tram rail_urban rail rail_electric rail_fast ship cable_car subway" speed="11.18" length="14.49" shape="1343.02,596.75 1328.54,596.35"/>
    </edge>
    <edge id=":49429417_2" function="internal">
        <lane id=":49429417_2_0" index="0" disallow="pedestrian tram rail_urban rail rail_electric rail_fast ship cable_car subway" speed="7.98" length="4.15" shape="1343.02,596.75 1339.16,596.13 1338.96,596.00"/>
    </edge>
    <edge id=":49429417_3" function="internal">
        <lane id=":49429417_3_0" index="0" disallow="pedestrian tram rail_urban rail rail_electric rail_fast ship cable_car subway" speed="3.65" length="1.44" shape="1343.02,596.75 1341.84,595.93"/>
    </edge>
    <edge id=":49429417_16" function="internal">
        <lane id=":49429417_16_0" index="0" disallow="pedestrian tram rail_urban rail rail_electric rail_fast ship cable_car subway" speed="7.98" length="10.10" shape="1338.96,596.00 1336.45,594.41 1334.87,591.62 1334.44,587.73"/>
    </edge>
    <edge id=":49429417_17" function="internal">
        <lane id=":49429417_17_0" index="0" disallow="pedestrian tram rail_urban rail rail_electric rail_fast ship cable_car subway" speed="3.65" length="3.23" shape="1341.84,595.93 1341.45,595.12 1341.87,594.33 1343.08,593.55"/>
    </edge>
    <edge id=":49429417_4" function="internal">
        <lane id=":49429417_4_0" index="0" disallow="tram rail_urban rail rail_electric rail_fast ship cable_car subway" speed="6.48" length="9.03" shape="1337.64,587.83 1337.91,590.30 1338.91,592.07 1340.63,593.16 1343.08,593.55"/>
    </edge>
    <edge id=":49429417_5" function="internal">
        <lane id=":49429417_5_0" index="0" disallow="tram rail_urban rail rail_electric rail_fast ship cable_car subway" speed="11.18" length="16.44" shape="1337.64,587.83 1337.08,604.26"/>
    </edge>
    <edge id=":49429417_6" function="internal">
        <lane id=":49429417_6_0" index="0" disallow="pedestrian tram rail_urban rail rail_electric rail_fast ship cable_car subway" speed="8.00" length="4.10" shape="1337.64,587.83 1336.97,591.68 1336.86,591.84"/>
    </edge>
    <edge id=":49429417_7" function="internal">
        <lane id=":49429417_7_0" index="0" disallow="tram rail_urban rail rail_electric rail_fast ship cable_car subway" speed="3.65" length="1.44" shape="1337.64,587.83 1336.80,589.00"/>
    </edge>
    <edge id=":49429417_18" function="internal">
        <lane id=":49429417_18_0" index="0" disallow="pedestrian tram rail_urban rail rail_electric rail_fast ship cable_car subway" speed="8.00" length="10.14" shape="1336.86,591.84 1335.22,594.38 1332.41,595.94 1328.54,596.35"/>
    </edge>
    <edge id=":49429417_19" function="internal">
        <lane id=":49429417_19_0" index="0" disallow="tram rail_urban rail rail_electric rail_fast ship cable_car subway" speed="3.65" length="3.23" shape="1336.80,589.00 1335.99,589.38 1335.20,588.95 1334.44,587.73"/>
    </edge>
    <edge id=":49429417_8" function="internal">
        <lane id=":49429417_8_0" index="0" disallow="tram rail_urban rail rail_electric rail_fast ship cable_car subway" speed="6.50" length="9.05" shape="1328.66,593.15 1331.12,592.89 1332.91,591.90 1334.01,590.18 1334.44,587.73"/>
    </edge>
    <edge id=":49429417_9" function="internal">
        <lane id=":49429417_9_0" index="0" disallow="tram rail_urban rail rail_electric rail_fast ship cable_car subway" speed="11.18" length="14.43" shape="1328.66,593.15 1343.08,593.55"/>
    </edge>
    <edge id=":49429417_10" function="internal">
        <lane id=":49429417_10_0" index="0" disallow="tram rail_urban rail rail_electric rail_fast ship cable_car subway" speed="8.43" length="3.77" shape="1328.66,593.15 1332.35,593.94"/>
    </edge>
    <edge id=":49429417_11" function="internal">
        <lane id=":49429417_11_0" index="0" disallow="pedestrian tram rail_urban rail rail_electric rail_fast ship cable_car subway" speed="3.65" length="1.44" shape="1328.66,593.15 1329.83,594.00"/>
    </edge>
    <edge id=":49429417_20" function="internal">
        <lane id=":49429417_20_0" index="0" disallow="tram rail_urban rail rail_electric rail_fast ship cable_car subway" speed="8.43" length="12.07" shape="1332.35,593.94 1332.49,593.97 1335.17,596.09 1336.70,599.53 1337.08,604.26"/>
    </edge>
    <edge id=":49429417_21" function="internal">
        <lane id=":49429417_21_0" index="0" disallow="pedestrian tram rail_urban rail rail_electric rail_fast ship cable_car subway" speed="3.65" length="3.23" shape="1329.83,594.00 1330.20,594.81 1329.77,595.59 1328.54,596.35"/>
    </edge>
    <edge id=":49429417_12" function="internal">
        <lane id=":49429417_12_0" index="0" disallow="pedestrian tram rail_urban rail rail_electric rail_fast ship cable_car subway" speed="7.03" length="10.71" shape="1333.89,604.15 1333.65,600.82 1332.68,598.40 1330.98,596.92 1328.54,596.35"/>
    </edge>
    <edge id=":49429417_13" function="internal">
        <lane id=":49429417_13_0" index="0" disallow="tram rail_urban rail rail_electric rail_fast ship cable_car subway" speed="11.18" length="16.43" shape="1333.89,604.15 1334.44,587.73"/>
    </edge>
    <edge id=":49429417_14" function="internal">
        <lane id=":49429417_14_0" index="0" disallow="tram rail_urban rail rail_electric rail_fast ship cable_car subway" speed="8.49" length="4.98" shape="1333.89,604.15 1334.60,599.45 1334.71,599.25"/>
    </edge>
    <edge id=":49429417_15" function="internal">
        <lane id=":49429417_15_0" index="0" disallow="tram rail_urban rail rail_electric rail_fast ship cable_car subway" speed="3.65" length="1.44" shape="1333.89,604.15 1334.73,602.98"/>
    </edge>
    <edge id=":49429417_22" function="internal">
        <lane id=":49429417_22_0" index="0" disallow="tram rail_urban rail rail_electric rail_fast ship cable_car subway" speed="8.49" length="10.92" shape="1334.71,599.25 1336.38,596.12 1339.20,594.15 1343.08,593.55"/>
    </edge>
    <edge id=":49429417_23" function="internal">
        <lane id=":49429417_23_0" index="0" disallow="tram rail_urban rail rail_electric rail_fast ship cable_car subway" speed="3.65" length="3.23" shape="1334.73,602.98 1335.54,602.61 1336.33,603.04 1337.08,604.26"/>
    </edge>
    <edge id=":49429417_w0" function="walkingarea">
        <lane id=":49429417_w0_0" index="0" allow="pedestrian" speed="2.78" length="8.90" width="3.20" shape="1328.48,597.95 1328.40,599.95 1332.29,604.09 1335.49,604.21 1338.68,604.32 1342.96,600.35 1343.00,598.35"/>
    </edge>
    <edge id=":49429417_w1" function="walkingarea">
        <lane id=":49429417_w1_0" index="0" allow="pedestrian" speed="2.78" length="9.05" width="3.20" shape="1343.05,595.15 1343.11,591.95 1339.24,587.88 1336.04,587.78 1332.84,587.68 1328.72,591.55 1328.60,594.75"/>
    </edge>
    <edge id=":49429420_0" function="internal">
        <lane id=":49429420_0_0" index="0" disallow="tram rail_urban rail rail_electric rail_fast ship cable_car subway" speed="6.50" length="9.03" shape="1344.85,537.59 1342.39,537.85 1340.60,538.84 1339.50,540.56 1339.07,543.00"/>
    </edge>
    <edge id=":49429420_1" function="internal">
        <lane id=":49429420_1_0" index="0" disallow="tram rail_urban rail rail_electric rail_fast ship cable_car subway" speed="6.71" length="14.41" shape="1344.85,537.59 1330.45,537.09"/>
    </edge>
    <edge id=":49429420_2" function="internal">
        <lane id=":49429420_2_0" index="0" disallow="tram rail_urban rail rail_electric rail_fast ship cable_car subway" speed="7.33" length="11.74" shape="1344.85,537.59 1341.01,537.10 1338.30,535.96 1336.70,534.15 1336.23,531.68"/>
    </edge>
    <edge id=":49429420_3" function="internal">
        <lane id=":49429420_3_0" index="0" disallow="tram rail_urban rail rail_electric rail_fast ship cable_car subway" speed="11.18" length="11.21" shape="1339.43,531.79 1339.07,543.00"/>
    </edge>
    <edge id=":49429420_4" function="internal">
        <lane id=":49429420_4_0" index="0" disallow="tram rail_urban rail rail_electric rail_fast ship cable_car subway" speed="7.32" length="2.51" shape="1339.43,531.79 1338.80,534.22"/>
    </edge>
    <edge id=":49429420_5" function="internal">
        <lane id=":49429420_5_0" index="0" disallow="tram rail_urban rail rail_electric rail_fast ship cable_car subway" speed="3.65" length="1.44" shape="1339.43,531.79 1338.59,532.96"/>
    </edge>
    <edge id=":49429420_9" function="internal">
        <lane id=":49429420_9_0" index="0" disallow="tram rail_urban rail rail_electric rail_fast ship cable_car subway" speed="7.32" length="9.22" shape="1338.80,534.22 1337.09,535.92 1334.31,536.87 1330.45,537.09"/>
    </edge>
    <edge id=":49429420_10" function="internal">
        <lane id=":49429420_10_0" index="0" disallow="tram rail_urban rail rail_electric rail_fast ship cable_car subway" speed="3.65" length="3.23" shape="1338.59,532.96 1337.78,533.34 1336.99,532.91 1336.23,531.68"/>
    </edge>
    <edge id=":49429420_6" function="internal">
        <lane id=":49429420_6_0" index="0" disallow="tram rail_urban rail rail_electric rail_fast ship cable_car subway" speed="6.52" length="9.05" shape="1335.87,542.89 1335.60,540.43 1334.61,538.64 1332.89,537.53 1330.45,537.09"/>
    </edge>
    <edge id=":49429420_7" function="internal">
        <lane id=":49429420_7_0" index="0" disallow="tram rail_urban rail rail_electric rail_fast ship cable_car subway" speed="11.18" length="11.22" shape="1335.87,542.89 1336.23,531.68"/>
    </edge>
    <edge id=":49429420_8" function="internal">
        <lane id=":49429420_8_0" index="0" disallow="tram rail_urban rail rail_electric rail_fast ship cable_car subway" speed="3.65" length="1.44" shape="1335.87,542.89 1336.71,541.72"/>
    </edge>
    <edge id=":49429420_11" function="internal">
        <lane id=":49429420_11_0" index="0" disallow="tram rail_urban rail rail_electric rail_fast ship cable_car subway" speed="3.65" length="3.23" shape="1336.71,541.72 1337.52,541.35 1338.31,541.77 1339.07,543.00"/>
    </edge>
    <edge id=":49429420_w0" function="walkingarea">
        <lane id=":49429420_w0_0" index="0" allow="pedestrian" speed="2.78" length="9.33" width="6.40" shape="1344.80,539.19 1344.90,535.99 1342.69,535.47 1341.93,534.88 1341.40,534.08 1341.10,533.07 1341.03,531.84 1334.63,531.63 1334.12,533.84 1333.54,534.60 1332.74,535.12 1331.73,535.42 1330.51,535.49 1330.40,538.69 1332.61,539.21 1333.37,539.80 1333.90,540.60 1334.20,541.61 1334.27,542.84 1340.67,543.05 1341.19,540.84 1341.77,540.08 1342.56,539.55 1343.57,539.25"/>
    </edge>
    <edge id=":49456157_0" function="internal">
        <lane id=":49456157_0_0" index="0" disallow="tram rail_urban rail rail_electric rail_fast ship cable_car subway" speed="11.18" length="11.21" shape="1180.87,932.76 1169.67,932.40"/>
        <lane id=":49456157_0_1" index="1" disallow="tram rail_urban rail rail_electric rail_fast ship cable_car subway" speed="11.18" length="11.21" shape="1180.97,929.56 1169.77,929.20"/>
    </edge>
    <edge id=":49456157_2" function="internal">