<?xml version="1.0" encoding="UTF-8"?>

<!-- generated on 2024-08-21 13:21:20 by Eclipse SUMO netedit Version 1.20.0
-->

<additional xmlns:xsi="http://www.w3.org/2001/XMLSchema-instance" xsi:noNamespaceSchemaLocation="http://sumo.dlr.de/xsd/additional_file.xsd">
    <!-- StoppingPlaces -->
    <busStop id="-4501242775" lane="-192469469#2_0" startPos="17.61" endPos="32.61" friendlyPos="true" lines="65"/>
    <busStop id="-6117388035" lane="-390061613#5_0" startPos="9.52" endPos="24.52" friendlyPos="true" lines="NV 63"/>
    <busStop id="2516605830" name="Hudson &amp; Baylis" lane="244330235_0" startPos="0.00" endPos="15.00" friendlyPos="true" lines="65"/>
    <busStop id="6117373938" lane="390061613#8_0" startPos="0.00" endPos="15.00" friendlyPos="true"/>
    <busStop id="6117373939" lane="390061613#3_0" startPos="9.89" endPos="24.89" friendlyPos="true"/>
    <busStop id="6117375575" lane="948331274#5_0" startPos="3.83" endPos="18.83" friendlyPos="true"/>
    <busStop id="6117375577" lane="948331274#8_0" startPos="0.00" endPos="15.00" friendlyPos="true"/>
    <busStop id="6117378696" lane="138388359#16_0" startPos="28.90" endPos="43.90" friendlyPos="true" lines="NV"/>
    <busStop id="6117378698" lane="829470071#1_0" startPos="0.00" endPos="15.00" friendlyPos="true"/>
    <busStop id="6117388043" lane="829470071#6_0" startPos="31.98" endPos="46.98" friendlyPos="true"/>
    <busStop id="6117399256" lane="390061613#8_0" startPos="65.11" endPos="80.11" friendlyPos="true" lines="NV 63"/>
    <busStop id="bs_0" lane="829470071#2_0" startPos="41.04"/>
    <busStop id="bs_1" lane="829470071#5_0" startPos="40.30"/>
    <busStop id="bs_10" lane="75926225#0_0" startPos="27.57" endPos="37.57"/>
    <busStop id="bs_2" lane="948331274#1_0" startPos="38.12"/>
    <busStop id="bs_3" lane="390061613#1_0" startPos="43.59"/>
    <busStop id="bs_4" lane="-390061613#9_0" startPos="22.43" endPos="32.43"/>
    <busStop id="bs_5" lane="1087560658_0" startPos="88.12" endPos="98.12"/>
    <busStop id="bs_6" lane="-197879536#2_0" startPos="8.40" endPos="18.40"/>
    <busStop id="bs_7" lane="-75926225#4_0" startPos="9.75" endPos="19.75"/>
    <busStop id="bs_8" lane="75926225#3_0" startPos="21.03" endPos="31.03"/>
    <busStop id="bs_9" lane="-75926225#2_0" startPos="38.28" endPos="48.28"/>
    <parkingArea id="pa_1" lane="49664167#5_0" startPos="24.26" endPos="34.26"/>
    <parkingArea id="pa_2" lane="49664167#6_0" startPos="12.37" endPos="22.37"/>
    <parkingArea id="pa_3" lane="49664167#6_0" startPos="27.27" endPos="37.27"/>
    <!-- Other additionals -->
    <rerouter id="rr0" edges="49664167#5" pos="1321.81,882.94" vTypes="taxi">
        <interval begin="0.00" end="86400.00">
            <parkingAreaReroute id="pa_1"/>
        </interval>
    </rerouter>
</additional>
