<?xml version="1.0" encoding="UTF-8"?>
<trips>
    <person id="p_0" depart="0.00">
        <ride from="-791811233#7" to="49664167#8" lines="ANY"/>
    </person>
    <person id="p_1" depart="10.00">
        <ride from="49664167#1" to="75926211#4" lines="ANY"/>
    </person>
    <person id="p_2" depart="20.00">
        <ride from="829470071#6" to="570709857" lines="ANY"/>
    </person>
    <person id="p_3" depart="30.00">
        <ride from="791811231#28" to="791811233#17" lines="ANY"/>
    </person>
    <person id="p_4" depart="40.00">
        <ride from="837239920#3" to="243591150#0" lines="ANY"/>
    </person>
    <person id="p_5" depart="50.00">
        <ride from="197879536#3" to="791811231#10" lines="ANY"/>
    </person>
    <person id="p_6" depart="60.00">
        <ride from="837239920#8" to="707194201" lines="ANY"/>
    </person>
    <person id="p_7" depart="70.00">
        <ride from="244330237#0" to="6007194#9" lines="ANY"/>
    </person>
    <person id="p_8" depart="80.00">
        <ride from="1064816172#2" to="6023599#1" lines="ANY"/>
    </person>
    <person id="p_9" depart="90.00">
        <ride from="791811233#6" to="791811231#27" lines="ANY"/>
    </person>
    <person id="p_10" depart="100.00">
        <ride from="6007194#3" to="6006943#2" lines="ANY"/>
    </person>
    <person id="p_11" depart="110.00">
        <ride from="791811233#15" to="-75926211#9" lines="ANY"/>
    </person>
    <person id="p_12" depart="120.00">
        <ride from="75926225#0" to="-829470070#4" lines="ANY"/>
    </person>
    <person id="p_13" depart="130.00">
        <ride from="275806335#0" to="791811231#27" lines="ANY"/>
    </person>
    <person id="p_14" depart="140.00">
        <ride from="-829470071#6" to="192469470#0" lines="ANY"/>
    </person>
    <person id="p_15" depart="150.00">
        <ride from="192469476#0" to="-791811233#28" lines="ANY"/>
    </person>
    <person id="p_16" depart="160.00">
        <ride from="711637731#4" to="192469465#0" lines="ANY"/>
    </person>
    <person id="p_17" depart="170.00">
        <ride from="829470070#1" to="6006941#2" lines="ANY"/>
    </person>
    <person id="p_18" depart="180.00">
        <ride from="791811233#29" to="791811231#22" lines="ANY"/>
    </person>
    <person id="p_19" depart="190.00">
        <ride from="6008952#4" to="707194199#1" lines="ANY"/>
    </person>
    <person id="p_20" depart="200.00">
        <ride from="6008952#1" to="243591150#0" lines="ANY"/>
    </person>
    <person id="p_21" depart="210.00">
        <ride from="312363545#1" to="-244330236#0" lines="ANY"/>
    </person>
    <person id="p_22" depart="220.00">
        <ride from="-948331274#9" to="75926211#4" lines="ANY"/>
    </person>
    <person id="p_23" depart="230.00">
        <ride from="-192469473#1" to="390061635#1" lines="ANY"/>
    </person>
    <person id="p_24" depart="240.00">
        <ride from="6008952#1" to="244330237#4" lines="ANY"/>
    </person>
    <person id="p_25" depart="250.00">
        <ride from="-829470071#5" to="-6006941#2" lines="ANY"/>
    </person>
    <person id="p_26" depart="260.00">
        <ride from="312363545#1" to="244330235" lines="ANY"/>
    </person>
    <person id="p_27" depart="270.00">
        <ride from="-75926211#0" to="-192469464#4" lines="ANY"/>
    </person>
    <person id="p_28" depart="280.00">
        <ride from="49664167#5" to="192469476#0" lines="ANY"/>
    </person>
    <person id="p_29" depart="290.00">
        <ride from="-791811233#9" to="-49664167#9" lines="ANY"/>
    </person>
    <person id="p_30" depart="300.00">
        <ride from="75926211#3" to="-192469464#1" lines="ANY"/>
    </person>
    <person id="p_31" depart="310.00">
        <ride from="-829470071#2" to="6006943#2" lines="ANY"/>
    </person>
    <person id="p_32" depart="320.00">
        <ride from="-275806336" to="6023599#3" lines="ANY"/>
    </person>
    <person id="p_33" depart="330.00">
        <ride from="-192469469#3" to="948331274#5" lines="ANY"/>
    </person>
    <person id="p_34" depart="340.00">
        <ride from="-75926225#2" to="-829470071#1" lines="ANY"/>
    </person>
    <person id="p_35" depart="350.00">
        <ride from="6007194#9" to="6006943#3" lines="ANY"/>
    </person>
    <person id="p_36" depart="360.00">
        <ride from="-49664167#5" to="6007194#8" lines="ANY"/>
    </person>
    <person id="p_37" depart="370.00">
        <ride from="-49664167#5" to="-6006943#0" lines="ANY"/>
    </person>
    <person id="p_38" depart="380.00">
        <ride from="6023599#4" to="275806335#0" lines="ANY"/>
    </person>
    <person id="p_39" depart="390.00">
        <ride from="75926210#3" to="-138388359#16" lines="ANY"/>
    </person>
    <person id="p_40" depart="400.00">
        <ride from="791811231#10" to="275806336" lines="ANY"/>
    </person>
    <person id="p_41" depart="410.00">
        <ride from="706987135#0" to="138388359#16" lines="ANY"/>
    </person>
    <person id="p_42" depart="420.00">
        <ride from="6013253#1" to="-707194197#2" lines="ANY"/>
    </person>
    <person id="p_43" depart="430.00">
        <ride from="791811231#27" to="711654870#0" lines="ANY"/>
    </person>
    <person id="p_44" depart="440.00">
        <ride from="791811231#10" to="6011017#0" lines="ANY"/>
    </person>
    <person id="p_45" depart="450.00">
        <ride from="192469472#2" to="-275806336" lines="ANY"/>
    </person>
    <person id="p_46" depart="460.00">
        <ride from="75926211#3" to="791811233#8" lines="ANY"/>
    </person>
    <person id="p_47" depart="470.00">
        <ride from="-138388359#16" to="982026543#0" lines="ANY"/>
    </person>
    <person id="p_48" depart="480.00">
        <ride from="-75926211#7" to="-829470071#2" lines="ANY"/>
    </person>
    <person id="p_49" depart="490.00">
        <ride from="837239920#3" to="75926211#8" lines="ANY"/>
    </person>
    <person id="p_50" depart="500.00">
        <ride from="275806335#0" to="-948331274#6" lines="ANY"/>
    </person>
    <person id="p_51" depart="510.00">
        <ride from="-791811233#7" to="-570709857" lines="ANY"/>
    </person>
    <person id="p_52" depart="520.00">
        <ride from="791811231#8" to="-49664167#9" lines="ANY"/>
    </person>
    <person id="p_53" depart="530.00">
        <ride from="711637732#0" to="791811231#26" lines="ANY"/>
    </person>
    <person id="p_54" depart="540.00">
        <ride from="-390061613#1" to="707194199#1" lines="ANY"/>
    </person>
    <person id="p_55" depart="550.00">
        <ride from="243591150#0" to="390061613#1" lines="ANY"/>
    </person>
    <person id="p_56" depart="560.00">
        <ride from="711637732#2" to="75926211#1" lines="ANY"/>
    </person>
    <person id="p_57" depart="570.00">
        <ride from="6008952#4" to="390061635#9" lines="ANY"/>
    </person>
    <person id="p_58" depart="580.00">
        <ride from="791811233#10" to="982026543#0" lines="ANY"/>
    </person>
    <person id="p_59" depart="590.00">
        <ride from="-138388359#16" to="244330237#4" lines="ANY"/>
    </person>
    <person id="p_60" depart="600.00">
        <ride from="-49664167#6" to="192469464#1" lines="ANY"/>
    </person>
    <person id="p_61" depart="610.00">
        <ride from="-948331274#6" to="-49664167#9" lines="ANY"/>
    </person>
    <person id="p_62" depart="620.00">
        <ride from="6023599#1" to="192469470#0" lines="ANY"/>
    </person>
    <person id="p_63" depart="630.00">
        <ride from="-75926212#3" to="312363545#1" lines="ANY"/>
    </person>
    <person id="p_64" depart="640.00">
        <ride from="-829470070#2" to="707194197#2" lines="ANY"/>
    </person>
    <person id="p_65" depart="650.00">
        <ride from="390061613#8" to="791811231#22" lines="ANY"/>
    </person>
    <person id="p_66" depart="660.00">
        <ride from="-948331274#6" to="-75926211#1" lines="ANY"/>
    </person>
    <person id="p_67" depart="670.00">
        <ride from="791811233#6" to="-75926211#3" lines="ANY"/>
    </person>
    <person id="p_68" depart="680.00">
        <ride from="-138388359#16" to="75926211#8" lines="ANY"/>
    </person>
    <person id="p_69" depart="690.00">
        <ride from="75926211#8" to="-791811233#19" lines="ANY"/>
    </person>
    <person id="p_70" depart="700.00">
        <ride from="-948331274#6" to="192469464#1" lines="ANY"/>
    </person>
    <person id="p_71" depart="710.00">
        <ride from="791811233#30" to="711654872#0" lines="ANY"/>
    </person>
    <person id="p_72" depart="720.00">
        <ride from="-75926211#3" to="-791811233#7" lines="ANY"/>
    </person>
    <person id="p_73" depart="730.00">
        <ride from="-6006943#1" to="-829470070#4" lines="ANY"/>
    </person>
    <person id="p_74" depart="740.00">
        <ride from="-6006941#2" to="-791811233#11" lines="ANY"/>
    </person>
    <person id="p_75" depart="750.00">
        <ride from="829470071#1" to="197879536#3" lines="ANY"/>
    </person>
    <person id="p_76" depart="760.00">
        <ride from="837239920#6" to="707194198#0" lines="ANY"/>
    </person>
    <person id="p_77" depart="770.00">
        <ride from="192469465#1" to="791811233#8" lines="ANY"/>
    </person>
    <person id="p_78" depart="780.00">
        <ride from="-49664167#8" to="6007194#8" lines="ANY"/>
    </person>
    <person id="p_79" depart="790.00">
        <ride from="-6006943#3" to="711654872#0" lines="ANY"/>
    </person>
    <person id="p_80" depart="800.00">
        <ride from="-192469469#3" to="75926211#8" lines="ANY"/>
    </person>
    <person id="p_81" depart="810.00">
        <ride from="75926212#0" to="-791811233#7" lines="ANY"/>
    </person>
    <person id="p_82" depart="820.00">
        <ride from="711654871" to="-75926212#3" lines="ANY"/>
    </person>
    <person id="p_83" depart="830.00">
        <ride from="192469464#1" to="-6006943#2" lines="ANY"/>
    </person>
    <person id="p_84" depart="840.00">
        <ride from="829470071#6" to="-6006943#0" lines="ANY"/>
    </person>
    <person id="p_85" depart="850.00">
        <ride from="6007194#9" to="791811233#25" lines="ANY"/>
    </person>
    <person id="p_86" depart="860.00">
        <ride from="-75926211#7" to="791811233#17" lines="ANY"/>
    </person>
    <person id="p_87" depart="870.00">
        <ride from="275806336" to="-192469464#4" lines="ANY"/>
    </person>
    <person id="p_88" depart="880.00">
        <ride from="-192469464#4" to="243591150#0" lines="ANY"/>
    </person>
    <person id="p_89" depart="890.00">
        <ride from="1087560658" to="6008952#1" lines="ANY"/>
    </person>
    <person id="p_90" depart="900.00">
        <ride from="-192469464#4" to="6006943#1" lines="ANY"/>
    </person>
    <person id="p_91" depart="910.00">
        <ride from="-243591150#1" to="192469476#0" lines="ANY"/>
    </person>
    <person id="p_92" depart="920.00">
        <ride from="-829470071#1" to="-791811233#27" lines="ANY"/>
    </person>
    <person id="p_93" depart="930.00">
        <ride from="192469472#2" to="-75926225#2" lines="ANY"/>
    </person>
    <person id="p_94" depart="940.00">
        <ride from="837239920#8" to="244330235" lines="ANY"/>
    </person>
    <person id="p_95" depart="950.00">
        <ride from="-791811233#7" to="6006943#0" lines="ANY"/>
    </person>
    <person id="p_96" depart="960.00">
        <ride from="6007194#7" to="-275806335#1" lines="ANY"/>
    </person>
    <person id="p_97" depart="970.00">
        <ride from="791811233#29" to="-138388359#16" lines="ANY"/>
    </person>
    <person id="p_98" depart="980.00">
        <ride from="-244330236#2" to="-829470071#2" lines="ANY"/>
    </person>
    <person id="p_99" depart="990.00">
        <ride from="6007194#9" to="192469473#0" lines="ANY"/>
    </person>
</trips>
